lehigh_VLN.Txt

SYMMETRICAL COMPONENT VOLTAGES BY BUS (for 3-phase buses)

Bus        Mag:   V1 (kV)    p.u.     V2 (kV)   %V2/V1    V0 (kV)    %V0/V1

sourcebus      66.4          1   6.849E-7   1.032E-6  4.319E-9  6.505E-9
680           2.402          1   1.174E-9   4.887E-8 1.562E-10  6.505E-9
650           2.402          1  0.00005438   0.002264 0.00004044  0.001684
rg60          2.482      1.033    0.02772      1.117   0.02777     1.119
633           2.281     0.9498    0.07335      3.215   0.04501     1.973
634            0.26     0.9382    0.01002      3.854  0.002743     1.055
684           1.907     0.7941          0          0         0         0
645           2.293     0.9547          0          0         0         0
646           2.286     0.9519          0          0         0         0
692           2.211     0.9207     0.1326      5.998     0.171     7.732
675           2.212     0.9211     0.1323      5.981    0.1707     7.718
611           1.903     0.7924          0          0         0         0
652           1.896     0.7896          0          0         0         0
670           2.236      0.931     0.1048      4.689   0.07917     3.541
671           2.211     0.9207     0.1326      5.998     0.171     7.732
632           2.285     0.9513    0.07083        3.1   0.04907     2.147
